
.ic  v(vc)=0.3
.param collect_mode = 1
.option runlvl=5
.option opfile=1 split_dp=1
.option probe=1
.probe tran v(*) level=1
.probe tran v(vc) v(ctrl_dsn) v(ctrl_dsn_bar) v(vir_gnd)

.tran 1n 16m sweep DATA=input

.DATA input
+ vdd r_cap
+ 0.4 1.25
+ 0.4 1.26
+ 0.4 1.27
+ 0.4 1.28
+ 0.4 1.29
+ 0.4 1.3
+ 0.4 1.31
+ 0.4 1.32
+ 0.4 1.33
+ 0.4 1.34
+ 0.4 1.35
+ 0.4 1.36
+ 0.4 1.37
+ 0.4 1.38
+ 0.4 1.39
+ 0.4 1.4
+ 0.4 1.41
+ 0.4 1.42
+ 0.4 1.43
+ 0.4 1.44
+ 0.4 1.45
+ 0.4 1.46
+ 0.4 1.47
+ 0.4 1.48
+ 0.4 1.49
+ 0.4 1.5
+ 0.4 1.51
+ 0.4 1.52
+ 0.4 1.53
+ 0.4 1.54
+ 0.4 1.55
+ 0.4 1.56
+ 0.4 1.57
+ 0.4 1.58
+ 0.4 1.59
+ 0.4 1.6
+ 0.4 1.61
+ 0.4 1.62
+ 0.4 1.63
+ 0.4 1.64
+ 0.4 1.65
+ 0.4 1.66
+ 0.4 1.67
+ 0.4 1.68
+ 0.4 1.69
+ 0.4 1.7
+ 0.4 1.71
+ 0.4 1.72
+ 0.4 1.73
+ 0.4 1.74
+ 0.4 1.75
+ 0.4 1.76
+ 0.4 1.77
+ 0.4 1.78
+ 0.4 1.79
+ 0.4 1.8
+ 0.4 1.81
+ 0.4 1.82
+ 0.4 1.83
+ 0.4 1.84
+ 0.4 1.85
+ 0.4 1.86
+ 0.4 1.87
+ 0.4 1.88
+ 0.4 1.89
+ 0.4 1.9
+ 0.4 1.91
+ 0.4 1.92
+ 0.4 1.93
+ 0.4 1.94
+ 0.4 1.95
+ 0.4 1.96
+ 0.4 1.97
+ 0.4 1.98
+ 0.4 1.99
+ 0.4 2.0
+ 0.4 2.01
+ 0.4 2.02
+ 0.4 2.03
+ 0.4 2.04
+ 0.4 2.05
+ 0.4 2.06
+ 0.4 2.07
+ 0.4 2.08
+ 0.4 2.09
+ 0.4 2.1
+ 0.4 2.11
+ 0.4 2.12
+ 0.4 2.13
+ 0.4 2.14
+ 0.4 2.15
+ 0.4 2.16
+ 0.4 2.17
+ 0.4 2.18
+ 0.4 2.19
+ 0.4 2.2
+ 0.4 2.21
+ 0.4 2.22
+ 0.4 2.23
+ 0.4 2.24
+ 0.4 2.25
+ 0.4 2.26
+ 0.4 2.27
+ 0.4 2.28
+ 0.4 2.29
+ 0.4 2.3
+ 0.4 2.31
+ 0.4 2.32
+ 0.4 2.33
+ 0.4 2.34
+ 0.4 2.35
+ 0.4 2.36
+ 0.4 2.37
+ 0.4 2.38
+ 0.4 2.39
+ 0.4 2.4
+ 0.4 2.41
+ 0.4 2.42
+ 0.4 2.43
+ 0.4 2.44
+ 0.4 2.45
+ 0.4 2.46
+ 0.4 2.47
+ 0.4 2.48
+ 0.4 2.49
+ 0.4 2.5
+ 0.41 1.25
+ 0.41 1.26
+ 0.41 1.27
+ 0.41 1.28
+ 0.41 1.29
+ 0.41 1.3
+ 0.41 1.31
+ 0.41 1.32
+ 0.41 1.33
+ 0.41 1.34
+ 0.41 1.35
+ 0.41 1.36
+ 0.41 1.37
+ 0.41 1.38
+ 0.41 1.39
+ 0.41 1.4
+ 0.41 1.41
+ 0.41 1.42
+ 0.41 1.43
+ 0.41 1.44
+ 0.41 1.45
+ 0.41 1.46
+ 0.41 1.47
+ 0.41 1.48
+ 0.41 1.49
+ 0.41 1.5
+ 0.41 1.51
+ 0.41 1.52
+ 0.41 1.53
+ 0.41 1.54
+ 0.41 1.55
+ 0.41 1.56
+ 0.41 1.57
+ 0.41 1.58
+ 0.41 1.59
+ 0.41 1.6
+ 0.41 1.61
+ 0.41 1.62
+ 0.41 1.63
+ 0.41 1.64
+ 0.41 1.65
+ 0.41 1.66
+ 0.41 1.67
+ 0.41 1.68
+ 0.41 1.69
+ 0.41 1.7
+ 0.41 1.71
+ 0.41 1.72
+ 0.41 1.73
+ 0.41 1.74
+ 0.41 1.75
+ 0.41 1.76
+ 0.41 1.77
+ 0.41 1.78
+ 0.41 1.79
+ 0.41 1.8
+ 0.41 1.81
+ 0.41 1.82
+ 0.41 1.83
+ 0.41 1.84
+ 0.41 1.85
+ 0.41 1.86
+ 0.41 1.87
+ 0.41 1.88
+ 0.41 1.89
+ 0.41 1.9
+ 0.41 1.91
+ 0.41 1.92
+ 0.41 1.93
+ 0.41 1.94
+ 0.41 1.95
+ 0.41 1.96
+ 0.41 1.97
+ 0.41 1.98
+ 0.41 1.99
+ 0.41 2.0
+ 0.41 2.01
+ 0.41 2.02
+ 0.41 2.03
+ 0.41 2.04
+ 0.41 2.05
+ 0.41 2.06
+ 0.41 2.07
+ 0.41 2.08
+ 0.41 2.09
+ 0.41 2.1
+ 0.41 2.11
+ 0.41 2.12
+ 0.41 2.13
+ 0.41 2.14
+ 0.41 2.15
+ 0.41 2.16
+ 0.41 2.17
+ 0.41 2.18
+ 0.41 2.19
+ 0.41 2.2
+ 0.41 2.21
+ 0.41 2.22
+ 0.41 2.23
+ 0.41 2.24
+ 0.41 2.25
+ 0.41 2.26
+ 0.41 2.27
+ 0.41 2.28
+ 0.41 2.29
+ 0.41 2.3
+ 0.41 2.31
+ 0.41 2.32
+ 0.41 2.33
+ 0.41 2.34
+ 0.41 2.35
+ 0.41 2.36
+ 0.41 2.37
+ 0.41 2.38
+ 0.41 2.39
+ 0.41 2.4
+ 0.41 2.41
+ 0.41 2.42
+ 0.41 2.43
+ 0.41 2.44
+ 0.41 2.45
+ 0.41 2.46
+ 0.41 2.47
+ 0.41 2.48
+ 0.41 2.49
+ 0.41 2.5
+ 0.42 1.25
+ 0.42 1.26
+ 0.42 1.27
+ 0.42 1.28
+ 0.42 1.29
+ 0.42 1.3
+ 0.42 1.31
+ 0.42 1.32
+ 0.42 1.33
+ 0.42 1.34
+ 0.42 1.35
+ 0.42 1.36
+ 0.42 1.37
+ 0.42 1.38
+ 0.42 1.39
+ 0.42 1.4
+ 0.42 1.41
+ 0.42 1.42
+ 0.42 1.43
+ 0.42 1.44
+ 0.42 1.45
+ 0.42 1.46
+ 0.42 1.47
+ 0.42 1.48
+ 0.42 1.49
+ 0.42 1.5
+ 0.42 1.51
+ 0.42 1.52
+ 0.42 1.53
+ 0.42 1.54
+ 0.42 1.55
+ 0.42 1.56
+ 0.42 1.57
+ 0.42 1.58
+ 0.42 1.59
+ 0.42 1.6
+ 0.42 1.61
+ 0.42 1.62
+ 0.42 1.63
+ 0.42 1.64
+ 0.42 1.65
+ 0.42 1.66
+ 0.42 1.67
+ 0.42 1.68
+ 0.42 1.69
+ 0.42 1.7
+ 0.42 1.71
+ 0.42 1.72
+ 0.42 1.73
+ 0.42 1.74
+ 0.42 1.75
+ 0.42 1.76
+ 0.42 1.77
+ 0.42 1.78
+ 0.42 1.79
+ 0.42 1.8
+ 0.42 1.81
+ 0.42 1.82
+ 0.42 1.83
+ 0.42 1.84
+ 0.42 1.85
+ 0.42 1.86
+ 0.42 1.87
+ 0.42 1.88
+ 0.42 1.89
+ 0.42 1.9
+ 0.42 1.91
+ 0.42 1.92
+ 0.42 1.93
+ 0.42 1.94
+ 0.42 1.95
+ 0.42 1.96
+ 0.42 1.97
+ 0.42 1.98
+ 0.42 1.99
+ 0.42 2.0
+ 0.42 2.01
+ 0.42 2.02
+ 0.42 2.03
+ 0.42 2.04
+ 0.42 2.05
+ 0.42 2.06
+ 0.42 2.07
+ 0.42 2.08
+ 0.42 2.09
+ 0.42 2.1
+ 0.42 2.11
+ 0.42 2.12
+ 0.42 2.13
+ 0.42 2.14
+ 0.42 2.15
+ 0.42 2.16
+ 0.42 2.17
+ 0.42 2.18
+ 0.42 2.19
+ 0.42 2.2
+ 0.42 2.21
+ 0.42 2.22
+ 0.42 2.23
+ 0.42 2.24
+ 0.42 2.25
+ 0.42 2.26
+ 0.42 2.27
+ 0.42 2.28
+ 0.42 2.29
+ 0.42 2.3
+ 0.42 2.31
+ 0.42 2.32
+ 0.42 2.33
+ 0.42 2.34
+ 0.42 2.35
+ 0.42 2.36
+ 0.42 2.37
+ 0.42 2.38
+ 0.42 2.39
+ 0.42 2.4
+ 0.42 2.41
+ 0.42 2.42
+ 0.42 2.43
+ 0.42 2.44
+ 0.42 2.45
+ 0.42 2.46
+ 0.42 2.47
+ 0.42 2.48
+ 0.42 2.49
+ 0.42 2.5
+ 0.43 1.25
+ 0.43 1.26
+ 0.43 1.27
+ 0.43 1.28
+ 0.43 1.29
+ 0.43 1.3
+ 0.43 1.31
+ 0.43 1.32
+ 0.43 1.33
+ 0.43 1.34
+ 0.43 1.35
+ 0.43 1.36
+ 0.43 1.37
+ 0.43 1.38
+ 0.43 1.39
+ 0.43 1.4
+ 0.43 1.41
+ 0.43 1.42
+ 0.43 1.43
+ 0.43 1.44
+ 0.43 1.45
+ 0.43 1.46
+ 0.43 1.47
+ 0.43 1.48
+ 0.43 1.49
+ 0.43 1.5
+ 0.43 1.51
+ 0.43 1.52
+ 0.43 1.53
+ 0.43 1.54
+ 0.43 1.55
+ 0.43 1.56
+ 0.43 1.57
+ 0.43 1.58
+ 0.43 1.59
+ 0.43 1.6
+ 0.43 1.61
+ 0.43 1.62
+ 0.43 1.63
+ 0.43 1.64
+ 0.43 1.65
+ 0.43 1.66
+ 0.43 1.67
+ 0.43 1.68
+ 0.43 1.69
+ 0.43 1.7
+ 0.43 1.71
+ 0.43 1.72
+ 0.43 1.73
+ 0.43 1.74
+ 0.43 1.75
+ 0.43 1.76
+ 0.43 1.77
+ 0.43 1.78
+ 0.43 1.79
+ 0.43 1.8
+ 0.43 1.81
+ 0.43 1.82
+ 0.43 1.83
+ 0.43 1.84
+ 0.43 1.85
+ 0.43 1.86
+ 0.43 1.87
+ 0.43 1.88
+ 0.43 1.89
+ 0.43 1.9
+ 0.43 1.91
+ 0.43 1.92
+ 0.43 1.93
+ 0.43 1.94
+ 0.43 1.95
+ 0.43 1.96
+ 0.43 1.97
+ 0.43 1.98
+ 0.43 1.99
+ 0.43 2.0
+ 0.43 2.01
+ 0.43 2.02
+ 0.43 2.03
+ 0.43 2.04
+ 0.43 2.05
+ 0.43 2.06
+ 0.43 2.07
+ 0.43 2.08
+ 0.43 2.09
+ 0.43 2.1
+ 0.43 2.11
+ 0.43 2.12
+ 0.43 2.13
+ 0.43 2.14
+ 0.43 2.15
+ 0.43 2.16
+ 0.43 2.17
+ 0.43 2.18
+ 0.43 2.19
+ 0.43 2.2
+ 0.43 2.21
+ 0.43 2.22
+ 0.43 2.23
+ 0.43 2.24
+ 0.43 2.25
+ 0.43 2.26
+ 0.43 2.27
+ 0.43 2.28
+ 0.43 2.29
+ 0.43 2.3
+ 0.43 2.31
+ 0.43 2.32
+ 0.43 2.33
+ 0.43 2.34
+ 0.43 2.35
+ 0.43 2.36
+ 0.43 2.37
+ 0.43 2.38
+ 0.43 2.39
+ 0.43 2.4
+ 0.43 2.41
+ 0.43 2.42
+ 0.43 2.43
+ 0.43 2.44
+ 0.43 2.45
+ 0.43 2.46
+ 0.43 2.47
+ 0.43 2.48
+ 0.43 2.49
+ 0.43 2.5
+ 0.44 1.25
+ 0.44 1.26
+ 0.44 1.27
+ 0.44 1.28
+ 0.44 1.29
+ 0.44 1.3
+ 0.44 1.31
+ 0.44 1.32
+ 0.44 1.33
+ 0.44 1.34
+ 0.44 1.35
+ 0.44 1.36
+ 0.44 1.37
+ 0.44 1.38
+ 0.44 1.39
+ 0.44 1.4
+ 0.44 1.41
+ 0.44 1.42
+ 0.44 1.43
+ 0.44 1.44
+ 0.44 1.45
+ 0.44 1.46
+ 0.44 1.47
+ 0.44 1.48
+ 0.44 1.49
+ 0.44 1.5
+ 0.44 1.51
+ 0.44 1.52
+ 0.44 1.53
+ 0.44 1.54
+ 0.44 1.55
+ 0.44 1.56
+ 0.44 1.57
+ 0.44 1.58
+ 0.44 1.59
+ 0.44 1.6
+ 0.44 1.61
+ 0.44 1.62
+ 0.44 1.63
+ 0.44 1.64
+ 0.44 1.65
+ 0.44 1.66
+ 0.44 1.67
+ 0.44 1.68
+ 0.44 1.69
+ 0.44 1.7
+ 0.44 1.71
+ 0.44 1.72
+ 0.44 1.73
+ 0.44 1.74
+ 0.44 1.75
+ 0.44 1.76
+ 0.44 1.77
+ 0.44 1.78
+ 0.44 1.79
+ 0.44 1.8
+ 0.44 1.81
+ 0.44 1.82
+ 0.44 1.83
+ 0.44 1.84
+ 0.44 1.85
+ 0.44 1.86
+ 0.44 1.87
+ 0.44 1.88
+ 0.44 1.89
+ 0.44 1.9
+ 0.44 1.91
+ 0.44 1.92
+ 0.44 1.93
+ 0.44 1.94
+ 0.44 1.95
+ 0.44 1.96
+ 0.44 1.97
+ 0.44 1.98
+ 0.44 1.99
+ 0.44 2.0
+ 0.44 2.01
+ 0.44 2.02
+ 0.44 2.03
+ 0.44 2.04
+ 0.44 2.05
+ 0.44 2.06
+ 0.44 2.07
+ 0.44 2.08
+ 0.44 2.09
+ 0.44 2.1
+ 0.44 2.11
+ 0.44 2.12
+ 0.44 2.13
+ 0.44 2.14
+ 0.44 2.15
+ 0.44 2.16
+ 0.44 2.17
+ 0.44 2.18
+ 0.44 2.19
+ 0.44 2.2
+ 0.44 2.21
+ 0.44 2.22
+ 0.44 2.23
+ 0.44 2.24
+ 0.44 2.25
+ 0.44 2.26
+ 0.44 2.27
+ 0.44 2.28
+ 0.44 2.29
+ 0.44 2.3
+ 0.44 2.31
+ 0.44 2.32
+ 0.44 2.33
+ 0.44 2.34
+ 0.44 2.35
+ 0.44 2.36
+ 0.44 2.37
+ 0.44 2.38
+ 0.44 2.39
+ 0.44 2.4
+ 0.44 2.41
+ 0.44 2.42
+ 0.44 2.43
+ 0.44 2.44
+ 0.44 2.45
+ 0.44 2.46
+ 0.44 2.47
+ 0.44 2.48
+ 0.44 2.49
+ 0.44 2.5
+ 0.45 1.25
+ 0.45 1.26
+ 0.45 1.27
+ 0.45 1.28
+ 0.45 1.29
+ 0.45 1.3
+ 0.45 1.31
+ 0.45 1.32
+ 0.45 1.33
+ 0.45 1.34
+ 0.45 1.35
+ 0.45 1.36
+ 0.45 1.37
+ 0.45 1.38
+ 0.45 1.39
+ 0.45 1.4
+ 0.45 1.41
+ 0.45 1.42
+ 0.45 1.43
+ 0.45 1.44
+ 0.45 1.45
+ 0.45 1.46
+ 0.45 1.47
+ 0.45 1.48
+ 0.45 1.49
+ 0.45 1.5
+ 0.45 1.51
+ 0.45 1.52
+ 0.45 1.53
+ 0.45 1.54
+ 0.45 1.55
+ 0.45 1.56
+ 0.45 1.57
+ 0.45 1.58
+ 0.45 1.59
+ 0.45 1.6
+ 0.45 1.61
+ 0.45 1.62
+ 0.45 1.63
+ 0.45 1.64
+ 0.45 1.65
+ 0.45 1.66
+ 0.45 1.67
+ 0.45 1.68
+ 0.45 1.69
+ 0.45 1.7
+ 0.45 1.71
+ 0.45 1.72
+ 0.45 1.73
+ 0.45 1.74
+ 0.45 1.75
+ 0.45 1.76
+ 0.45 1.77
+ 0.45 1.78
+ 0.45 1.79
+ 0.45 1.8
+ 0.45 1.81
+ 0.45 1.82
+ 0.45 1.83
+ 0.45 1.84
+ 0.45 1.85
+ 0.45 1.86
+ 0.45 1.87
+ 0.45 1.88
+ 0.45 1.89
+ 0.45 1.9
+ 0.45 1.91
+ 0.45 1.92
+ 0.45 1.93
+ 0.45 1.94
+ 0.45 1.95
+ 0.45 1.96
+ 0.45 1.97
+ 0.45 1.98
+ 0.45 1.99
+ 0.45 2.0
+ 0.45 2.01
+ 0.45 2.02
+ 0.45 2.03
+ 0.45 2.04
+ 0.45 2.05
+ 0.45 2.06
+ 0.45 2.07
+ 0.45 2.08
+ 0.45 2.09
+ 0.45 2.1
+ 0.45 2.11
+ 0.45 2.12
+ 0.45 2.13
+ 0.45 2.14
+ 0.45 2.15
+ 0.45 2.16
+ 0.45 2.17
+ 0.45 2.18
+ 0.45 2.19
+ 0.45 2.2
+ 0.45 2.21
+ 0.45 2.22
+ 0.45 2.23
+ 0.45 2.24
+ 0.45 2.25
+ 0.45 2.26
+ 0.45 2.27
+ 0.45 2.28
+ 0.45 2.29
+ 0.45 2.3
+ 0.45 2.31
+ 0.45 2.32
+ 0.45 2.33
+ 0.45 2.34
+ 0.45 2.35
+ 0.45 2.36
+ 0.45 2.37
+ 0.45 2.38
+ 0.45 2.39
+ 0.45 2.4
+ 0.45 2.41
+ 0.45 2.42
+ 0.45 2.43
+ 0.45 2.44
+ 0.45 2.45
+ 0.45 2.46
+ 0.45 2.47
+ 0.45 2.48
+ 0.45 2.49
+ 0.45 2.5
+ 0.46 1.25
+ 0.46 1.26
+ 0.46 1.27
+ 0.46 1.28
+ 0.46 1.29
+ 0.46 1.3
+ 0.46 1.31
+ 0.46 1.32
+ 0.46 1.33
+ 0.46 1.34
+ 0.46 1.35
+ 0.46 1.36
+ 0.46 1.37
+ 0.46 1.38
+ 0.46 1.39
+ 0.46 1.4
+ 0.46 1.41
+ 0.46 1.42
+ 0.46 1.43
+ 0.46 1.44
+ 0.46 1.45
+ 0.46 1.46
+ 0.46 1.47
+ 0.46 1.48
+ 0.46 1.49
+ 0.46 1.5
+ 0.46 1.51
+ 0.46 1.52
+ 0.46 1.53
+ 0.46 1.54
+ 0.46 1.55
+ 0.46 1.56
+ 0.46 1.57
+ 0.46 1.58
+ 0.46 1.59
+ 0.46 1.6
+ 0.46 1.61
+ 0.46 1.62
+ 0.46 1.63
+ 0.46 1.64
+ 0.46 1.65
+ 0.46 1.66
+ 0.46 1.67
+ 0.46 1.68
+ 0.46 1.69
+ 0.46 1.7
+ 0.46 1.71
+ 0.46 1.72
+ 0.46 1.73
+ 0.46 1.74
+ 0.46 1.75
+ 0.46 1.76
+ 0.46 1.77
+ 0.46 1.78
+ 0.46 1.79
+ 0.46 1.8
+ 0.46 1.81
+ 0.46 1.82
+ 0.46 1.83
+ 0.46 1.84
+ 0.46 1.85
+ 0.46 1.86
+ 0.46 1.87
+ 0.46 1.88
+ 0.46 1.89
+ 0.46 1.9
+ 0.46 1.91
+ 0.46 1.92
+ 0.46 1.93
+ 0.46 1.94
+ 0.46 1.95
+ 0.46 1.96
+ 0.46 1.97
+ 0.46 1.98
+ 0.46 1.99
+ 0.46 2.0
+ 0.46 2.01
+ 0.46 2.02
+ 0.46 2.03
+ 0.46 2.04
+ 0.46 2.05
+ 0.46 2.06
+ 0.46 2.07
+ 0.46 2.08
+ 0.46 2.09
+ 0.46 2.1
+ 0.46 2.11
+ 0.46 2.12
+ 0.46 2.13
+ 0.46 2.14
+ 0.46 2.15
+ 0.46 2.16
+ 0.46 2.17
+ 0.46 2.18
+ 0.46 2.19
+ 0.46 2.2
+ 0.46 2.21
+ 0.46 2.22
+ 0.46 2.23
+ 0.46 2.24
+ 0.46 2.25
+ 0.46 2.26
+ 0.46 2.27
+ 0.46 2.28
+ 0.46 2.29
+ 0.46 2.3
+ 0.46 2.31
+ 0.46 2.32
+ 0.46 2.33
+ 0.46 2.34
+ 0.46 2.35
+ 0.46 2.36
+ 0.46 2.37
+ 0.46 2.38
+ 0.46 2.39
+ 0.46 2.4
+ 0.46 2.41
+ 0.46 2.42
+ 0.46 2.43
+ 0.46 2.44
+ 0.46 2.45
+ 0.46 2.46
+ 0.46 2.47
+ 0.46 2.48
+ 0.46 2.49
+ 0.46 2.5
+ 0.47 1.25
+ 0.47 1.26
+ 0.47 1.27
+ 0.47 1.28
+ 0.47 1.29
+ 0.47 1.3
+ 0.47 1.31
+ 0.47 1.32
+ 0.47 1.33
+ 0.47 1.34
+ 0.47 1.35
+ 0.47 1.36
+ 0.47 1.37
+ 0.47 1.38
+ 0.47 1.39
+ 0.47 1.4
+ 0.47 1.41
+ 0.47 1.42
+ 0.47 1.43
+ 0.47 1.44
+ 0.47 1.45
+ 0.47 1.46
+ 0.47 1.47
+ 0.47 1.48
+ 0.47 1.49
+ 0.47 1.5
+ 0.47 1.51
+ 0.47 1.52
+ 0.47 1.53
+ 0.47 1.54
+ 0.47 1.55
+ 0.47 1.56
+ 0.47 1.57
+ 0.47 1.58
+ 0.47 1.59
+ 0.47 1.6
+ 0.47 1.61
+ 0.47 1.62
+ 0.47 1.63
+ 0.47 1.64
+ 0.47 1.65
+ 0.47 1.66
+ 0.47 1.67
+ 0.47 1.68
+ 0.47 1.69
+ 0.47 1.7
+ 0.47 1.71
+ 0.47 1.72
+ 0.47 1.73
+ 0.47 1.74
+ 0.47 1.75
+ 0.47 1.76
+ 0.47 1.77
+ 0.47 1.78
+ 0.47 1.79
+ 0.47 1.8
+ 0.47 1.81
+ 0.47 1.82
+ 0.47 1.83
+ 0.47 1.84
+ 0.47 1.85
+ 0.47 1.86
+ 0.47 1.87
+ 0.47 1.88
+ 0.47 1.89
+ 0.47 1.9
+ 0.47 1.91
+ 0.47 1.92
+ 0.47 1.93
+ 0.47 1.94
+ 0.47 1.95
+ 0.47 1.96
+ 0.47 1.97
+ 0.47 1.98
+ 0.47 1.99
+ 0.47 2.0
+ 0.47 2.01
+ 0.47 2.02
+ 0.47 2.03
+ 0.47 2.04
+ 0.47 2.05
+ 0.47 2.06
+ 0.47 2.07
+ 0.47 2.08
+ 0.47 2.09
+ 0.47 2.1
+ 0.47 2.11
+ 0.47 2.12
+ 0.47 2.13
+ 0.47 2.14
+ 0.47 2.15
+ 0.47 2.16
+ 0.47 2.17
+ 0.47 2.18
+ 0.47 2.19
+ 0.47 2.2
+ 0.47 2.21
+ 0.47 2.22
+ 0.47 2.23
+ 0.47 2.24
+ 0.47 2.25
+ 0.47 2.26
+ 0.47 2.27
+ 0.47 2.28
+ 0.47 2.29
+ 0.47 2.3
+ 0.47 2.31
+ 0.47 2.32
+ 0.47 2.33
+ 0.47 2.34
+ 0.47 2.35
+ 0.47 2.36
+ 0.47 2.37
+ 0.47 2.38
+ 0.47 2.39
+ 0.47 2.4
+ 0.47 2.41
+ 0.47 2.42
+ 0.47 2.43
+ 0.47 2.44
+ 0.47 2.45
+ 0.47 2.46
+ 0.47 2.47
+ 0.47 2.48
+ 0.47 2.49
+ 0.47 2.5
+ 0.48 1.25
+ 0.48 1.26
+ 0.48 1.27
+ 0.48 1.28
+ 0.48 1.29
+ 0.48 1.3
+ 0.48 1.31
+ 0.48 1.32
+ 0.48 1.33
+ 0.48 1.34
+ 0.48 1.35
+ 0.48 1.36
+ 0.48 1.37
+ 0.48 1.38
+ 0.48 1.39
+ 0.48 1.4
+ 0.48 1.41
+ 0.48 1.42
+ 0.48 1.43
+ 0.48 1.44
+ 0.48 1.45
+ 0.48 1.46
+ 0.48 1.47
+ 0.48 1.48
+ 0.48 1.49
+ 0.48 1.5
+ 0.48 1.51
+ 0.48 1.52
+ 0.48 1.53
+ 0.48 1.54
+ 0.48 1.55
+ 0.48 1.56
+ 0.48 1.57
+ 0.48 1.58
+ 0.48 1.59
+ 0.48 1.6
+ 0.48 1.61
+ 0.48 1.62
+ 0.48 1.63
+ 0.48 1.64
+ 0.48 1.65
+ 0.48 1.66
+ 0.48 1.67
+ 0.48 1.68
+ 0.48 1.69
+ 0.48 1.7
+ 0.48 1.71
+ 0.48 1.72
+ 0.48 1.73
+ 0.48 1.74
+ 0.48 1.75
+ 0.48 1.76
+ 0.48 1.77
+ 0.48 1.78
+ 0.48 1.79
+ 0.48 1.8
+ 0.48 1.81
+ 0.48 1.82
+ 0.48 1.83
+ 0.48 1.84
+ 0.48 1.85
+ 0.48 1.86
+ 0.48 1.87
+ 0.48 1.88
+ 0.48 1.89
+ 0.48 1.9
+ 0.48 1.91
+ 0.48 1.92
+ 0.48 1.93
+ 0.48 1.94
+ 0.48 1.95
+ 0.48 1.96
+ 0.48 1.97
+ 0.48 1.98
+ 0.48 1.99
+ 0.48 2.0
+ 0.48 2.01
+ 0.48 2.02
+ 0.48 2.03
+ 0.48 2.04
+ 0.48 2.05
+ 0.48 2.06
+ 0.48 2.07
+ 0.48 2.08
+ 0.48 2.09
+ 0.48 2.1
+ 0.48 2.11
+ 0.48 2.12
+ 0.48 2.13
+ 0.48 2.14
+ 0.48 2.15
+ 0.48 2.16
+ 0.48 2.17
+ 0.48 2.18
+ 0.48 2.19
+ 0.48 2.2
+ 0.48 2.21
+ 0.48 2.22
+ 0.48 2.23
+ 0.48 2.24
+ 0.48 2.25
+ 0.48 2.26
+ 0.48 2.27
+ 0.48 2.28
+ 0.48 2.29
+ 0.48 2.3
+ 0.48 2.31
+ 0.48 2.32
+ 0.48 2.33
+ 0.48 2.34
+ 0.48 2.35
+ 0.48 2.36
+ 0.48 2.37
+ 0.48 2.38
+ 0.48 2.39
+ 0.48 2.4
+ 0.48 2.41
+ 0.48 2.42
+ 0.48 2.43
+ 0.48 2.44
+ 0.48 2.45
+ 0.48 2.46
+ 0.48 2.47
+ 0.48 2.48
+ 0.48 2.49
+ 0.48 2.5
+ 0.49 1.25
+ 0.49 1.26
+ 0.49 1.27
+ 0.49 1.28
+ 0.49 1.29
+ 0.49 1.3
+ 0.49 1.31
+ 0.49 1.32
+ 0.49 1.33
+ 0.49 1.34
+ 0.49 1.35
+ 0.49 1.36
+ 0.49 1.37
+ 0.49 1.38
+ 0.49 1.39
+ 0.49 1.4
+ 0.49 1.41
+ 0.49 1.42
+ 0.49 1.43
+ 0.49 1.44
+ 0.49 1.45
+ 0.49 1.46
+ 0.49 1.47
+ 0.49 1.48
+ 0.49 1.49
+ 0.49 1.5
+ 0.49 1.51
+ 0.49 1.52
+ 0.49 1.53
+ 0.49 1.54
+ 0.49 1.55
+ 0.49 1.56
+ 0.49 1.57
+ 0.49 1.58
+ 0.49 1.59
+ 0.49 1.6
+ 0.49 1.61
+ 0.49 1.62
+ 0.49 1.63
+ 0.49 1.64
+ 0.49 1.65
+ 0.49 1.66
+ 0.49 1.67
+ 0.49 1.68
+ 0.49 1.69
+ 0.49 1.7
+ 0.49 1.71
+ 0.49 1.72
+ 0.49 1.73
+ 0.49 1.74
+ 0.49 1.75
+ 0.49 1.76
+ 0.49 1.77
+ 0.49 1.78
+ 0.49 1.79
+ 0.49 1.8
+ 0.49 1.81
+ 0.49 1.82
+ 0.49 1.83
+ 0.49 1.84
+ 0.49 1.85
+ 0.49 1.86
+ 0.49 1.87
+ 0.49 1.88
+ 0.49 1.89
+ 0.49 1.9
+ 0.49 1.91
+ 0.49 1.92
+ 0.49 1.93
+ 0.49 1.94
+ 0.49 1.95
+ 0.49 1.96
+ 0.49 1.97
+ 0.49 1.98
+ 0.49 1.99
+ 0.49 2.0
+ 0.49 2.01
+ 0.49 2.02
+ 0.49 2.03
+ 0.49 2.04
+ 0.49 2.05
+ 0.49 2.06
+ 0.49 2.07
+ 0.49 2.08
+ 0.49 2.09
+ 0.49 2.1
+ 0.49 2.11
+ 0.49 2.12
+ 0.49 2.13
+ 0.49 2.14
+ 0.49 2.15
+ 0.49 2.16
+ 0.49 2.17
+ 0.49 2.18
+ 0.49 2.19
+ 0.49 2.2
+ 0.49 2.21
+ 0.49 2.22
+ 0.49 2.23
+ 0.49 2.24
+ 0.49 2.25
+ 0.49 2.26
+ 0.49 2.27
+ 0.49 2.28
+ 0.49 2.29
+ 0.49 2.3
+ 0.49 2.31
+ 0.49 2.32
+ 0.49 2.33
+ 0.49 2.34
+ 0.49 2.35
+ 0.49 2.36
+ 0.49 2.37
+ 0.49 2.38
+ 0.49 2.39
+ 0.49 2.4
+ 0.49 2.41
+ 0.49 2.42
+ 0.49 2.43
+ 0.49 2.44
+ 0.49 2.45
+ 0.49 2.46
+ 0.49 2.47
+ 0.49 2.48
+ 0.49 2.49
+ 0.49 2.5
+ 0.5 1.25
+ 0.5 1.26
+ 0.5 1.27
+ 0.5 1.28
+ 0.5 1.29
+ 0.5 1.3
+ 0.5 1.31
+ 0.5 1.32
+ 0.5 1.33
+ 0.5 1.34
+ 0.5 1.35
+ 0.5 1.36
+ 0.5 1.37
+ 0.5 1.38
+ 0.5 1.39
+ 0.5 1.4
+ 0.5 1.41
+ 0.5 1.42
+ 0.5 1.43
+ 0.5 1.44
+ 0.5 1.45
+ 0.5 1.46
+ 0.5 1.47
+ 0.5 1.48
+ 0.5 1.49
+ 0.5 1.5
+ 0.5 1.51
+ 0.5 1.52
+ 0.5 1.53
+ 0.5 1.54
+ 0.5 1.55
+ 0.5 1.56
+ 0.5 1.57
+ 0.5 1.58
+ 0.5 1.59
+ 0.5 1.6
+ 0.5 1.61
+ 0.5 1.62
+ 0.5 1.63
+ 0.5 1.64
+ 0.5 1.65
+ 0.5 1.66
+ 0.5 1.67
+ 0.5 1.68
+ 0.5 1.69
+ 0.5 1.7
+ 0.5 1.71
+ 0.5 1.72
+ 0.5 1.73
+ 0.5 1.74
+ 0.5 1.75
+ 0.5 1.76
+ 0.5 1.77
+ 0.5 1.78
+ 0.5 1.79
+ 0.5 1.8
+ 0.5 1.81
+ 0.5 1.82
+ 0.5 1.83
+ 0.5 1.84
+ 0.5 1.85
+ 0.5 1.86
+ 0.5 1.87
+ 0.5 1.88
+ 0.5 1.89
+ 0.5 1.9
+ 0.5 1.91
+ 0.5 1.92
+ 0.5 1.93
+ 0.5 1.94
+ 0.5 1.95
+ 0.5 1.96
+ 0.5 1.97
+ 0.5 1.98
+ 0.5 1.99
+ 0.5 2.0
+ 0.5 2.01
+ 0.5 2.02
+ 0.5 2.03
+ 0.5 2.04
+ 0.5 2.05
+ 0.5 2.06
+ 0.5 2.07
+ 0.5 2.08
+ 0.5 2.09
+ 0.5 2.1
+ 0.5 2.11
+ 0.5 2.12
+ 0.5 2.13
+ 0.5 2.14
+ 0.5 2.15
+ 0.5 2.16
+ 0.5 2.17
+ 0.5 2.18
+ 0.5 2.19
+ 0.5 2.2
+ 0.5 2.21
+ 0.5 2.22
+ 0.5 2.23
+ 0.5 2.24
+ 0.5 2.25
+ 0.5 2.26
+ 0.5 2.27
+ 0.5 2.28
+ 0.5 2.29
+ 0.5 2.3
+ 0.5 2.31
+ 0.5 2.32
+ 0.5 2.33
+ 0.5 2.34
+ 0.5 2.35
+ 0.5 2.36
+ 0.5 2.37
+ 0.5 2.38
+ 0.5 2.39
+ 0.5 2.4
+ 0.5 2.41
+ 0.5 2.42
+ 0.5 2.43
+ 0.5 2.44
+ 0.5 2.45
+ 0.5 2.46
+ 0.5 2.47
+ 0.5 2.48
+ 0.5 2.49
+ 0.5 2.5
+ 0.51 1.25
+ 0.51 1.26
+ 0.51 1.27
+ 0.51 1.28
+ 0.51 1.29
+ 0.51 1.3
+ 0.51 1.31
+ 0.51 1.32
+ 0.51 1.33
+ 0.51 1.34
+ 0.51 1.35
+ 0.51 1.36
+ 0.51 1.37
+ 0.51 1.38
+ 0.51 1.39
+ 0.51 1.4
+ 0.51 1.41
+ 0.51 1.42
+ 0.51 1.43
+ 0.51 1.44
+ 0.51 1.45
+ 0.51 1.46
+ 0.51 1.47
+ 0.51 1.48
+ 0.51 1.49
+ 0.51 1.5
+ 0.51 1.51
+ 0.51 1.52
+ 0.51 1.53
+ 0.51 1.54
+ 0.51 1.55
+ 0.51 1.56
+ 0.51 1.57
+ 0.51 1.58
+ 0.51 1.59
+ 0.51 1.6
+ 0.51 1.61
+ 0.51 1.62
+ 0.51 1.63
+ 0.51 1.64
+ 0.51 1.65
+ 0.51 1.66
+ 0.51 1.67
+ 0.51 1.68
+ 0.51 1.69
+ 0.51 1.7
+ 0.51 1.71
+ 0.51 1.72
+ 0.51 1.73
+ 0.51 1.74
+ 0.51 1.75
+ 0.51 1.76
+ 0.51 1.77
+ 0.51 1.78
+ 0.51 1.79
+ 0.51 1.8
+ 0.51 1.81
+ 0.51 1.82
+ 0.51 1.83
+ 0.51 1.84
+ 0.51 1.85
+ 0.51 1.86
+ 0.51 1.87
+ 0.51 1.88
+ 0.51 1.89
+ 0.51 1.9
+ 0.51 1.91
+ 0.51 1.92
+ 0.51 1.93
+ 0.51 1.94
+ 0.51 1.95
+ 0.51 1.96
+ 0.51 1.97
+ 0.51 1.98
+ 0.51 1.99
+ 0.51 2.0
+ 0.51 2.01
+ 0.51 2.02
+ 0.51 2.03
+ 0.51 2.04
+ 0.51 2.05
+ 0.51 2.06
+ 0.51 2.07
+ 0.51 2.08
+ 0.51 2.09
+ 0.51 2.1
+ 0.51 2.11
+ 0.51 2.12
+ 0.51 2.13
+ 0.51 2.14
+ 0.51 2.15
+ 0.51 2.16
+ 0.51 2.17
+ 0.51 2.18
+ 0.51 2.19
+ 0.51 2.2
+ 0.51 2.21
+ 0.51 2.22
+ 0.51 2.23
+ 0.51 2.24
+ 0.51 2.25
+ 0.51 2.26
+ 0.51 2.27
+ 0.51 2.28
+ 0.51 2.29
+ 0.51 2.3
+ 0.51 2.31
+ 0.51 2.32
+ 0.51 2.33
+ 0.51 2.34
+ 0.51 2.35
+ 0.51 2.36
+ 0.51 2.37
+ 0.51 2.38
+ 0.51 2.39
+ 0.51 2.4
+ 0.51 2.41
+ 0.51 2.42
+ 0.51 2.43
+ 0.51 2.44
+ 0.51 2.45
+ 0.51 2.46
+ 0.51 2.47
+ 0.51 2.48
+ 0.51 2.49
+ 0.51 2.5
+ 0.52 1.25
+ 0.52 1.26
+ 0.52 1.27
+ 0.52 1.28
+ 0.52 1.29
+ 0.52 1.3
+ 0.52 1.31
+ 0.52 1.32
+ 0.52 1.33
+ 0.52 1.34
+ 0.52 1.35
+ 0.52 1.36
+ 0.52 1.37
+ 0.52 1.38
+ 0.52 1.39
+ 0.52 1.4
+ 0.52 1.41
+ 0.52 1.42
+ 0.52 1.43
+ 0.52 1.44
+ 0.52 1.45
+ 0.52 1.46
+ 0.52 1.47
+ 0.52 1.48
+ 0.52 1.49
+ 0.52 1.5
+ 0.52 1.51
+ 0.52 1.52
+ 0.52 1.53
+ 0.52 1.54
+ 0.52 1.55
+ 0.52 1.56
+ 0.52 1.57
+ 0.52 1.58
+ 0.52 1.59
+ 0.52 1.6
+ 0.52 1.61
+ 0.52 1.62
+ 0.52 1.63
+ 0.52 1.64
+ 0.52 1.65
+ 0.52 1.66
+ 0.52 1.67
+ 0.52 1.68
+ 0.52 1.69
+ 0.52 1.7
+ 0.52 1.71
+ 0.52 1.72
+ 0.52 1.73
+ 0.52 1.74
+ 0.52 1.75
+ 0.52 1.76
+ 0.52 1.77
+ 0.52 1.78
+ 0.52 1.79
+ 0.52 1.8
+ 0.52 1.81
+ 0.52 1.82
+ 0.52 1.83
+ 0.52 1.84
+ 0.52 1.85
+ 0.52 1.86
+ 0.52 1.87
+ 0.52 1.88
+ 0.52 1.89
+ 0.52 1.9
+ 0.52 1.91
+ 0.52 1.92
+ 0.52 1.93
+ 0.52 1.94
+ 0.52 1.95
+ 0.52 1.96
+ 0.52 1.97
+ 0.52 1.98
+ 0.52 1.99
+ 0.52 2.0
+ 0.52 2.01
+ 0.52 2.02
+ 0.52 2.03
+ 0.52 2.04
+ 0.52 2.05
+ 0.52 2.06
+ 0.52 2.07
+ 0.52 2.08
+ 0.52 2.09
+ 0.52 2.1
+ 0.52 2.11
+ 0.52 2.12
+ 0.52 2.13
+ 0.52 2.14
+ 0.52 2.15
+ 0.52 2.16
+ 0.52 2.17
+ 0.52 2.18
+ 0.52 2.19
+ 0.52 2.2
+ 0.52 2.21
+ 0.52 2.22
+ 0.52 2.23
+ 0.52 2.24
+ 0.52 2.25
+ 0.52 2.26
+ 0.52 2.27
+ 0.52 2.28
+ 0.52 2.29
+ 0.52 2.3
+ 0.52 2.31
+ 0.52 2.32
+ 0.52 2.33
+ 0.52 2.34
+ 0.52 2.35
+ 0.52 2.36
+ 0.52 2.37
+ 0.52 2.38
+ 0.52 2.39
+ 0.52 2.4
+ 0.52 2.41
+ 0.52 2.42
+ 0.52 2.43
+ 0.52 2.44
+ 0.52 2.45
+ 0.52 2.46
+ 0.52 2.47
+ 0.52 2.48
+ 0.52 2.49
+ 0.52 2.5
+ 0.53 1.25
+ 0.53 1.26
+ 0.53 1.27
+ 0.53 1.28
+ 0.53 1.29
+ 0.53 1.3
+ 0.53 1.31
+ 0.53 1.32
+ 0.53 1.33
+ 0.53 1.34
+ 0.53 1.35
+ 0.53 1.36
+ 0.53 1.37
+ 0.53 1.38
+ 0.53 1.39
+ 0.53 1.4
+ 0.53 1.41
+ 0.53 1.42
+ 0.53 1.43
+ 0.53 1.44
+ 0.53 1.45
+ 0.53 1.46
+ 0.53 1.47
+ 0.53 1.48
+ 0.53 1.49
+ 0.53 1.5
+ 0.53 1.51
+ 0.53 1.52
+ 0.53 1.53
+ 0.53 1.54
+ 0.53 1.55
+ 0.53 1.56
+ 0.53 1.57
+ 0.53 1.58
+ 0.53 1.59
+ 0.53 1.6
+ 0.53 1.61
+ 0.53 1.62
+ 0.53 1.63
+ 0.53 1.64
+ 0.53 1.65
+ 0.53 1.66
+ 0.53 1.67
+ 0.53 1.68
+ 0.53 1.69
+ 0.53 1.7
+ 0.53 1.71
+ 0.53 1.72
+ 0.53 1.73
+ 0.53 1.74
+ 0.53 1.75
+ 0.53 1.76
+ 0.53 1.77
+ 0.53 1.78
+ 0.53 1.79
+ 0.53 1.8
+ 0.53 1.81
+ 0.53 1.82
+ 0.53 1.83
+ 0.53 1.84
+ 0.53 1.85
+ 0.53 1.86
+ 0.53 1.87
+ 0.53 1.88
+ 0.53 1.89
+ 0.53 1.9
+ 0.53 1.91
+ 0.53 1.92
+ 0.53 1.93
+ 0.53 1.94
+ 0.53 1.95
+ 0.53 1.96
+ 0.53 1.97
+ 0.53 1.98
+ 0.53 1.99
+ 0.53 2.0
+ 0.53 2.01
+ 0.53 2.02
+ 0.53 2.03
+ 0.53 2.04
+ 0.53 2.05
+ 0.53 2.06
+ 0.53 2.07
+ 0.53 2.08
+ 0.53 2.09
+ 0.53 2.1
+ 0.53 2.11
+ 0.53 2.12
+ 0.53 2.13
+ 0.53 2.14
+ 0.53 2.15
+ 0.53 2.16
+ 0.53 2.17
+ 0.53 2.18
+ 0.53 2.19
+ 0.53 2.2
+ 0.53 2.21
+ 0.53 2.22
+ 0.53 2.23
+ 0.53 2.24
+ 0.53 2.25
+ 0.53 2.26
+ 0.53 2.27
+ 0.53 2.28
+ 0.53 2.29
+ 0.53 2.3
+ 0.53 2.31
+ 0.53 2.32
+ 0.53 2.33
+ 0.53 2.34
+ 0.53 2.35
+ 0.53 2.36
+ 0.53 2.37
+ 0.53 2.38
+ 0.53 2.39
+ 0.53 2.4
+ 0.53 2.41
+ 0.53 2.42
+ 0.53 2.43
+ 0.53 2.44
+ 0.53 2.45
+ 0.53 2.46
+ 0.53 2.47
+ 0.53 2.48
+ 0.53 2.49
+ 0.53 2.5
+ 0.54 1.25
+ 0.54 1.26
+ 0.54 1.27
+ 0.54 1.28
+ 0.54 1.29
+ 0.54 1.3
+ 0.54 1.31
+ 0.54 1.32
+ 0.54 1.33
+ 0.54 1.34
+ 0.54 1.35
+ 0.54 1.36
+ 0.54 1.37
+ 0.54 1.38
+ 0.54 1.39
+ 0.54 1.4
+ 0.54 1.41
+ 0.54 1.42
+ 0.54 1.43
+ 0.54 1.44
+ 0.54 1.45
+ 0.54 1.46
+ 0.54 1.47
+ 0.54 1.48
+ 0.54 1.49
+ 0.54 1.5
+ 0.54 1.51
+ 0.54 1.52
+ 0.54 1.53
+ 0.54 1.54
+ 0.54 1.55
+ 0.54 1.56
+ 0.54 1.57
+ 0.54 1.58
+ 0.54 1.59
+ 0.54 1.6
+ 0.54 1.61
+ 0.54 1.62
+ 0.54 1.63
+ 0.54 1.64
+ 0.54 1.65
+ 0.54 1.66
+ 0.54 1.67
+ 0.54 1.68
+ 0.54 1.69
+ 0.54 1.7
+ 0.54 1.71
+ 0.54 1.72
+ 0.54 1.73
+ 0.54 1.74
+ 0.54 1.75
+ 0.54 1.76
+ 0.54 1.77
+ 0.54 1.78
+ 0.54 1.79
+ 0.54 1.8
+ 0.54 1.81
+ 0.54 1.82
+ 0.54 1.83
+ 0.54 1.84
+ 0.54 1.85
+ 0.54 1.86
+ 0.54 1.87
+ 0.54 1.88
+ 0.54 1.89
+ 0.54 1.9
+ 0.54 1.91
+ 0.54 1.92
+ 0.54 1.93
+ 0.54 1.94
+ 0.54 1.95
+ 0.54 1.96
+ 0.54 1.97
+ 0.54 1.98
+ 0.54 1.99
+ 0.54 2.0
+ 0.54 2.01
+ 0.54 2.02
+ 0.54 2.03
+ 0.54 2.04
+ 0.54 2.05
+ 0.54 2.06
+ 0.54 2.07
+ 0.54 2.08
+ 0.54 2.09
+ 0.54 2.1
+ 0.54 2.11
+ 0.54 2.12
+ 0.54 2.13
+ 0.54 2.14
+ 0.54 2.15
+ 0.54 2.16
+ 0.54 2.17
+ 0.54 2.18
+ 0.54 2.19
+ 0.54 2.2
+ 0.54 2.21
+ 0.54 2.22
+ 0.54 2.23
+ 0.54 2.24
+ 0.54 2.25
+ 0.54 2.26
+ 0.54 2.27
+ 0.54 2.28
+ 0.54 2.29
+ 0.54 2.3
+ 0.54 2.31
+ 0.54 2.32
+ 0.54 2.33
+ 0.54 2.34
+ 0.54 2.35
+ 0.54 2.36
+ 0.54 2.37
+ 0.54 2.38
+ 0.54 2.39
+ 0.54 2.4
+ 0.54 2.41
+ 0.54 2.42
+ 0.54 2.43
+ 0.54 2.44
+ 0.54 2.45
+ 0.54 2.46
+ 0.54 2.47
+ 0.54 2.48
+ 0.54 2.49
+ 0.54 2.5
+ 0.55 1.25
+ 0.55 1.26
+ 0.55 1.27
+ 0.55 1.28
+ 0.55 1.29
+ 0.55 1.3
+ 0.55 1.31
+ 0.55 1.32
+ 0.55 1.33
+ 0.55 1.34
+ 0.55 1.35
+ 0.55 1.36
+ 0.55 1.37
+ 0.55 1.38
+ 0.55 1.39
+ 0.55 1.4
+ 0.55 1.41
+ 0.55 1.42
+ 0.55 1.43
+ 0.55 1.44
+ 0.55 1.45
+ 0.55 1.46
+ 0.55 1.47
+ 0.55 1.48
+ 0.55 1.49
+ 0.55 1.5
+ 0.55 1.51
+ 0.55 1.52
+ 0.55 1.53
+ 0.55 1.54
+ 0.55 1.55
+ 0.55 1.56
+ 0.55 1.57
+ 0.55 1.58
+ 0.55 1.59
+ 0.55 1.6
+ 0.55 1.61
+ 0.55 1.62
+ 0.55 1.63
+ 0.55 1.64
+ 0.55 1.65
+ 0.55 1.66
+ 0.55 1.67
+ 0.55 1.68
+ 0.55 1.69
+ 0.55 1.7
+ 0.55 1.71
+ 0.55 1.72
+ 0.55 1.73
+ 0.55 1.74
+ 0.55 1.75
+ 0.55 1.76
+ 0.55 1.77
+ 0.55 1.78
+ 0.55 1.79
+ 0.55 1.8
+ 0.55 1.81
+ 0.55 1.82
+ 0.55 1.83
+ 0.55 1.84
+ 0.55 1.85
+ 0.55 1.86
+ 0.55 1.87
+ 0.55 1.88
+ 0.55 1.89
+ 0.55 1.9
+ 0.55 1.91
+ 0.55 1.92
+ 0.55 1.93
+ 0.55 1.94
+ 0.55 1.95
+ 0.55 1.96
+ 0.55 1.97
+ 0.55 1.98
+ 0.55 1.99
+ 0.55 2.0
+ 0.55 2.01
+ 0.55 2.02
+ 0.55 2.03
+ 0.55 2.04
+ 0.55 2.05
+ 0.55 2.06
+ 0.55 2.07
+ 0.55 2.08
+ 0.55 2.09
+ 0.55 2.1
+ 0.55 2.11
+ 0.55 2.12
+ 0.55 2.13
+ 0.55 2.14
+ 0.55 2.15
+ 0.55 2.16
+ 0.55 2.17
+ 0.55 2.18
+ 0.55 2.19
+ 0.55 2.2
+ 0.55 2.21
+ 0.55 2.22
+ 0.55 2.23
+ 0.55 2.24
+ 0.55 2.25
+ 0.55 2.26
+ 0.55 2.27
+ 0.55 2.28
+ 0.55 2.29
+ 0.55 2.3
+ 0.55 2.31
+ 0.55 2.32
+ 0.55 2.33
+ 0.55 2.34
+ 0.55 2.35
+ 0.55 2.36
+ 0.55 2.37
+ 0.55 2.38
+ 0.55 2.39
+ 0.55 2.4
+ 0.55 2.41
+ 0.55 2.42
+ 0.55 2.43
+ 0.55 2.44
+ 0.55 2.45
+ 0.55 2.46
+ 0.55 2.47
+ 0.55 2.48
+ 0.55 2.49
+ 0.55 2.5
+ 0.56 1.25
+ 0.56 1.26
+ 0.56 1.27
+ 0.56 1.28
+ 0.56 1.29
+ 0.56 1.3
+ 0.56 1.31
+ 0.56 1.32
+ 0.56 1.33
+ 0.56 1.34
+ 0.56 1.35
+ 0.56 1.36
+ 0.56 1.37
+ 0.56 1.38
+ 0.56 1.39
+ 0.56 1.4
+ 0.56 1.41
+ 0.56 1.42
+ 0.56 1.43
+ 0.56 1.44
+ 0.56 1.45
+ 0.56 1.46
+ 0.56 1.47
+ 0.56 1.48
+ 0.56 1.49
+ 0.56 1.5
+ 0.56 1.51
+ 0.56 1.52
+ 0.56 1.53
+ 0.56 1.54
+ 0.56 1.55
+ 0.56 1.56
+ 0.56 1.57
+ 0.56 1.58
+ 0.56 1.59
+ 0.56 1.6
+ 0.56 1.61
+ 0.56 1.62
+ 0.56 1.63
+ 0.56 1.64
+ 0.56 1.65
+ 0.56 1.66
+ 0.56 1.67
+ 0.56 1.68
+ 0.56 1.69
+ 0.56 1.7
+ 0.56 1.71
+ 0.56 1.72
+ 0.56 1.73
+ 0.56 1.74
+ 0.56 1.75
+ 0.56 1.76
+ 0.56 1.77
+ 0.56 1.78
+ 0.56 1.79
+ 0.56 1.8
+ 0.56 1.81
+ 0.56 1.82
+ 0.56 1.83
+ 0.56 1.84
+ 0.56 1.85
+ 0.56 1.86
+ 0.56 1.87
+ 0.56 1.88
+ 0.56 1.89
+ 0.56 1.9
+ 0.56 1.91
+ 0.56 1.92
+ 0.56 1.93
+ 0.56 1.94
+ 0.56 1.95
+ 0.56 1.96
+ 0.56 1.97
+ 0.56 1.98
+ 0.56 1.99
+ 0.56 2.0
+ 0.56 2.01
+ 0.56 2.02
+ 0.56 2.03
+ 0.56 2.04
+ 0.56 2.05
+ 0.56 2.06
+ 0.56 2.07
+ 0.56 2.08
+ 0.56 2.09
+ 0.56 2.1
+ 0.56 2.11
+ 0.56 2.12
+ 0.56 2.13
+ 0.56 2.14
+ 0.56 2.15
+ 0.56 2.16
+ 0.56 2.17
+ 0.56 2.18
+ 0.56 2.19
+ 0.56 2.2
+ 0.56 2.21
+ 0.56 2.22
+ 0.56 2.23
+ 0.56 2.24
+ 0.56 2.25
+ 0.56 2.26
+ 0.56 2.27
+ 0.56 2.28
+ 0.56 2.29
+ 0.56 2.3
+ 0.56 2.31
+ 0.56 2.32
+ 0.56 2.33
+ 0.56 2.34
+ 0.56 2.35
+ 0.56 2.36
+ 0.56 2.37
+ 0.56 2.38
+ 0.56 2.39
+ 0.56 2.4
+ 0.56 2.41
+ 0.56 2.42
+ 0.56 2.43
+ 0.56 2.44
+ 0.56 2.45
+ 0.56 2.46
+ 0.56 2.47
+ 0.56 2.48
+ 0.56 2.49
+ 0.56 2.5
+ 0.57 1.25
+ 0.57 1.26
+ 0.57 1.27
+ 0.57 1.28
+ 0.57 1.29
+ 0.57 1.3
+ 0.57 1.31
+ 0.57 1.32
+ 0.57 1.33
+ 0.57 1.34
+ 0.57 1.35
+ 0.57 1.36
+ 0.57 1.37
+ 0.57 1.38
+ 0.57 1.39
+ 0.57 1.4
+ 0.57 1.41
+ 0.57 1.42
+ 0.57 1.43
+ 0.57 1.44
+ 0.57 1.45
+ 0.57 1.46
+ 0.57 1.47
+ 0.57 1.48
+ 0.57 1.49
+ 0.57 1.5
+ 0.57 1.51
+ 0.57 1.52
+ 0.57 1.53
+ 0.57 1.54
+ 0.57 1.55
+ 0.57 1.56
+ 0.57 1.57
+ 0.57 1.58
+ 0.57 1.59
+ 0.57 1.6
+ 0.57 1.61
+ 0.57 1.62
+ 0.57 1.63
+ 0.57 1.64
+ 0.57 1.65
+ 0.57 1.66
+ 0.57 1.67
+ 0.57 1.68
+ 0.57 1.69
+ 0.57 1.7
+ 0.57 1.71
+ 0.57 1.72
+ 0.57 1.73
+ 0.57 1.74
+ 0.57 1.75
+ 0.57 1.76
+ 0.57 1.77
+ 0.57 1.78
+ 0.57 1.79
+ 0.57 1.8
+ 0.57 1.81
+ 0.57 1.82
+ 0.57 1.83
+ 0.57 1.84
+ 0.57 1.85
+ 0.57 1.86
+ 0.57 1.87
+ 0.57 1.88
+ 0.57 1.89
+ 0.57 1.9
+ 0.57 1.91
+ 0.57 1.92
+ 0.57 1.93
+ 0.57 1.94
+ 0.57 1.95
+ 0.57 1.96
+ 0.57 1.97
+ 0.57 1.98
+ 0.57 1.99
+ 0.57 2.0
+ 0.57 2.01
+ 0.57 2.02
+ 0.57 2.03
+ 0.57 2.04
+ 0.57 2.05
+ 0.57 2.06
+ 0.57 2.07
+ 0.57 2.08
+ 0.57 2.09
+ 0.57 2.1
+ 0.57 2.11
+ 0.57 2.12
+ 0.57 2.13
+ 0.57 2.14
+ 0.57 2.15
+ 0.57 2.16
+ 0.57 2.17
+ 0.57 2.18
+ 0.57 2.19
+ 0.57 2.2
+ 0.57 2.21
+ 0.57 2.22
+ 0.57 2.23
+ 0.57 2.24
+ 0.57 2.25
+ 0.57 2.26
+ 0.57 2.27
+ 0.57 2.28
+ 0.57 2.29
+ 0.57 2.3
+ 0.57 2.31
+ 0.57 2.32
+ 0.57 2.33
+ 0.57 2.34
+ 0.57 2.35
+ 0.57 2.36
+ 0.57 2.37
+ 0.57 2.38
+ 0.57 2.39
+ 0.57 2.4
+ 0.57 2.41
+ 0.57 2.42
+ 0.57 2.43
+ 0.57 2.44
+ 0.57 2.45
+ 0.57 2.46
+ 0.57 2.47
+ 0.57 2.48
+ 0.57 2.49
+ 0.57 2.5
+ 0.58 1.25
+ 0.58 1.26
+ 0.58 1.27
+ 0.58 1.28
+ 0.58 1.29
+ 0.58 1.3
+ 0.58 1.31
+ 0.58 1.32
+ 0.58 1.33
+ 0.58 1.34
+ 0.58 1.35
+ 0.58 1.36
+ 0.58 1.37
+ 0.58 1.38
+ 0.58 1.39
+ 0.58 1.4
+ 0.58 1.41
+ 0.58 1.42
+ 0.58 1.43
+ 0.58 1.44
+ 0.58 1.45
+ 0.58 1.46
+ 0.58 1.47
+ 0.58 1.48
+ 0.58 1.49
+ 0.58 1.5
+ 0.58 1.51
+ 0.58 1.52
+ 0.58 1.53
+ 0.58 1.54
+ 0.58 1.55
+ 0.58 1.56
+ 0.58 1.57
+ 0.58 1.58
+ 0.58 1.59
+ 0.58 1.6
+ 0.58 1.61
+ 0.58 1.62
+ 0.58 1.63
+ 0.58 1.64
+ 0.58 1.65
+ 0.58 1.66
+ 0.58 1.67
+ 0.58 1.68
+ 0.58 1.69
+ 0.58 1.7
+ 0.58 1.71
+ 0.58 1.72
+ 0.58 1.73
+ 0.58 1.74
+ 0.58 1.75
+ 0.58 1.76
+ 0.58 1.77
+ 0.58 1.78
+ 0.58 1.79
+ 0.58 1.8
+ 0.58 1.81
+ 0.58 1.82
+ 0.58 1.83
+ 0.58 1.84
+ 0.58 1.85
+ 0.58 1.86
+ 0.58 1.87
+ 0.58 1.88
+ 0.58 1.89
+ 0.58 1.9
+ 0.58 1.91
+ 0.58 1.92
+ 0.58 1.93
+ 0.58 1.94
+ 0.58 1.95
+ 0.58 1.96
+ 0.58 1.97
+ 0.58 1.98
+ 0.58 1.99
+ 0.58 2.0
+ 0.58 2.01
+ 0.58 2.02
+ 0.58 2.03
+ 0.58 2.04
+ 0.58 2.05
+ 0.58 2.06
+ 0.58 2.07
+ 0.58 2.08
+ 0.58 2.09
+ 0.58 2.1
+ 0.58 2.11
+ 0.58 2.12
+ 0.58 2.13
+ 0.58 2.14
+ 0.58 2.15
+ 0.58 2.16
+ 0.58 2.17
+ 0.58 2.18
+ 0.58 2.19
+ 0.58 2.2
+ 0.58 2.21
+ 0.58 2.22
+ 0.58 2.23
+ 0.58 2.24
+ 0.58 2.25
+ 0.58 2.26
+ 0.58 2.27
+ 0.58 2.28
+ 0.58 2.29
+ 0.58 2.3
+ 0.58 2.31
+ 0.58 2.32
+ 0.58 2.33
+ 0.58 2.34
+ 0.58 2.35
+ 0.58 2.36
+ 0.58 2.37
+ 0.58 2.38
+ 0.58 2.39
+ 0.58 2.4
+ 0.58 2.41
+ 0.58 2.42
+ 0.58 2.43
+ 0.58 2.44
+ 0.58 2.45
+ 0.58 2.46
+ 0.58 2.47
+ 0.58 2.48
+ 0.58 2.49
+ 0.58 2.5
+ 0.59 1.25
+ 0.59 1.26
+ 0.59 1.27
+ 0.59 1.28
+ 0.59 1.29
+ 0.59 1.3
+ 0.59 1.31
+ 0.59 1.32
+ 0.59 1.33
+ 0.59 1.34
+ 0.59 1.35
+ 0.59 1.36
+ 0.59 1.37
+ 0.59 1.38
+ 0.59 1.39
+ 0.59 1.4
+ 0.59 1.41
+ 0.59 1.42
+ 0.59 1.43
+ 0.59 1.44
+ 0.59 1.45
+ 0.59 1.46
+ 0.59 1.47
+ 0.59 1.48
+ 0.59 1.49
+ 0.59 1.5
+ 0.59 1.51
+ 0.59 1.52
+ 0.59 1.53
+ 0.59 1.54
+ 0.59 1.55
+ 0.59 1.56
+ 0.59 1.57
+ 0.59 1.58
+ 0.59 1.59
+ 0.59 1.6
+ 0.59 1.61
+ 0.59 1.62
+ 0.59 1.63
+ 0.59 1.64
+ 0.59 1.65
+ 0.59 1.66
+ 0.59 1.67
+ 0.59 1.68
+ 0.59 1.69
+ 0.59 1.7
+ 0.59 1.71
+ 0.59 1.72
+ 0.59 1.73
+ 0.59 1.74
+ 0.59 1.75
+ 0.59 1.76
+ 0.59 1.77
+ 0.59 1.78
+ 0.59 1.79
+ 0.59 1.8
+ 0.59 1.81
+ 0.59 1.82
+ 0.59 1.83
+ 0.59 1.84
+ 0.59 1.85
+ 0.59 1.86
+ 0.59 1.87
+ 0.59 1.88
+ 0.59 1.89
+ 0.59 1.9
+ 0.59 1.91
+ 0.59 1.92
+ 0.59 1.93
+ 0.59 1.94
+ 0.59 1.95
+ 0.59 1.96
+ 0.59 1.97
+ 0.59 1.98
+ 0.59 1.99
+ 0.59 2.0
+ 0.59 2.01
+ 0.59 2.02
+ 0.59 2.03
+ 0.59 2.04
+ 0.59 2.05
+ 0.59 2.06
+ 0.59 2.07
+ 0.59 2.08
+ 0.59 2.09
+ 0.59 2.1
+ 0.59 2.11
+ 0.59 2.12
+ 0.59 2.13
+ 0.59 2.14
+ 0.59 2.15
+ 0.59 2.16
+ 0.59 2.17
+ 0.59 2.18
+ 0.59 2.19
+ 0.59 2.2
+ 0.59 2.21
+ 0.59 2.22
+ 0.59 2.23
+ 0.59 2.24
+ 0.59 2.25
+ 0.59 2.26
+ 0.59 2.27
+ 0.59 2.28
+ 0.59 2.29
+ 0.59 2.3
+ 0.59 2.31
+ 0.59 2.32
+ 0.59 2.33
+ 0.59 2.34
+ 0.59 2.35
+ 0.59 2.36
+ 0.59 2.37
+ 0.59 2.38
+ 0.59 2.39
+ 0.59 2.4
+ 0.59 2.41
+ 0.59 2.42
+ 0.59 2.43
+ 0.59 2.44
+ 0.59 2.45
+ 0.59 2.46
+ 0.59 2.47
+ 0.59 2.48
+ 0.59 2.49
+ 0.59 2.5
+ 0.6 1.25
+ 0.6 1.26
+ 0.6 1.27